24826799
  -OEChem-05191507052D

 66 70  0     0  0  0  0  0  0999 V2000
    8.1817    6.1931    0.0000 F   0  0  0  0  0  0  0  0  0  0  0  0
    8.8216    4.9319    0.0000 F   0  0  0  0  0  0  0  0  0  0  0  0
    6.9205    5.5532    0.0000 F   0  0  0  0  0  0  0  0  0  0  0  0
    7.2962    0.6961    0.0000 O   0  0  0  0  0  0  0  0  0  0  0  0
    4.9355    4.6239    0.0000 N   0  0  0  0  0  0  0  0  0  0  0  0
    2.9785    4.2114    0.0000 N   0  0  0  0  0  0  0  0  0  0  0  0
    8.5854    1.8529    0.0000 N   0  0  0  0  0  0  0  0  0  0  0  0
    7.4216   -4.6931    0.0000 N   0  0  0  0  0  0  0  0  0  0  0  0
    8.3678   -5.9978    0.0000 N   0  0  0  0  0  0  0  0  0  0  0  0
    6.5555   -4.1931    0.0000 N   0  0  0  0  0  0  0  0  0  0  0  0
    4.2677    5.3682    0.0000 C   0  0  0  0  0  0  0  0  0  0  0  0
    4.6249    3.6734    0.0000 C   0  0  0  0  0  0  0  0  0  0  0  0
    3.6464    3.4671    0.0000 C   0  0  0  0  0  0  0  0  0  0  0  0
    3.2892    5.1620    0.0000 C   0  0  0  0  0  0  0  0  0  0  0  0
    5.9140    4.8301    0.0000 C   0  0  0  0  0  0  0  0  0  0  0  0
    6.5819    4.0858    0.0000 C   0  0  0  0  0  0  0  0  0  0  0  0
    2.0000    4.0052    0.0000 C   0  0  0  0  0  0  0  0  0  0  0  0
    7.5604    4.2920    0.0000 C   0  0  0  0  0  0  0  0  0  0  0  0
    6.2712    3.1353    0.0000 C   0  0  0  0  0  0  0  0  0  0  0  0
    8.2282    3.5477    0.0000 C   0  0  0  0  0  0  0  0  0  0  0  0
    6.9390    2.3910    0.0000 C   0  0  0  0  0  0  0  0  0  0  0  0
    7.9176    2.5972    0.0000 C   0  0  0  0  0  0  0  0  0  0  0  0
    7.8710    5.2425    0.0000 C   0  0  0  0  0  0  0  0  0  0  0  0
    8.2747    0.9024    0.0000 C   0  0  0  0  0  0  0  0  0  0  0  0
    8.9426    0.1581    0.0000 C   0  0  0  0  0  0  0  0  0  0  0  0
    8.6319   -0.7925    0.0000 C   0  0  0  0  0  0  0  0  0  0  0  0
    9.9211    0.3643    0.0000 C   0  0  0  0  0  0  0  0  0  0  0  0
    9.2998   -1.5368    0.0000 C   0  0  0  0  0  0  0  0  0  0  0  0
   10.2783   -1.3305    0.0000 C   0  0  0  0  0  0  0  0  0  0  0  0
   10.5889   -0.3800    0.0000 C   0  0  0  0  0  0  0  0  0  0  0  0
   10.9461   -2.0748    0.0000 C   0  0  0  0  0  0  0  0  0  0  0  0
    8.9891   -2.4873    0.0000 C   0  0  0  0  0  0  0  0  0  0  0  0
    8.3678   -4.3883    0.0000 C   0  0  0  0  0  0  0  0  0  0  0  0
    7.4216   -5.6931    0.0000 C   0  0  0  0  0  0  0  0  0  0  0  0
    8.6784   -3.4378    0.0000 C   0  0  0  0  0  0  0  0  0  0  0  0
    8.9514   -5.1931    0.0000 C   0  0  0  0  0  0  0  0  0  0  0  0
    6.5555   -6.1931    0.0000 C   0  0  0  0  0  0  0  0  0  0  0  0
    5.6895   -5.6931    0.0000 C   0  0  0  0  0  0  0  0  0  0  0  0
    5.6895   -4.6931    0.0000 C   0  0  0  0  0  0  0  0  0  0  0  0
    4.6454    3.0537    0.0000 H   0  0  0  0  0  0  0  0  0  0  0  0
    5.2387    3.5860    0.0000 H   0  0  0  0  0  0  0  0  0  0  0  0
    4.7940    5.6958    0.0000 H   0  0  0  0  0  0  0  0  0  0  0  0
    4.0364    5.9434    0.0000 H   0  0  0  0  0  0  0  0  0  0  0  0
    3.1200    3.1395    0.0000 H   0  0  0  0  0  0  0  0  0  0  0  0
    3.8776    2.8919    0.0000 H   0  0  0  0  0  0  0  0  0  0  0  0
    3.2686    5.7816    0.0000 H   0  0  0  0  0  0  0  0  0  0  0  0
    2.6754    5.2493    0.0000 H   0  0  0  0  0  0  0  0  0  0  0  0
    6.4404    5.1577    0.0000 H   0  0  0  0  0  0  0  0  0  0  0  0
    5.6828    5.4054    0.0000 H   0  0  0  0  0  0  0  0  0  0  0  0
    1.8721    4.6119    0.0000 H   0  0  0  0  0  0  0  0  0  0  0  0
    1.3933    3.8774    0.0000 H   0  0  0  0  0  0  0  0  0  0  0  0
    2.1279    3.3985    0.0000 H   0  0  0  0  0  0  0  0  0  0  0  0
    5.6645    3.0074    0.0000 H   0  0  0  0  0  0  0  0  0  0  0  0
    8.8349    3.6756    0.0000 H   0  0  0  0  0  0  0  0  0  0  0  0
    6.7464    1.8016    0.0000 H   0  0  0  0  0  0  0  0  0  0  0  0
    9.1921    1.9807    0.0000 H   0  0  0  0  0  0  0  0  0  0  0  0
    8.0252   -0.9203    0.0000 H   0  0  0  0  0  0  0  0  0  0  0  0
   10.1137    0.9536    0.0000 H   0  0  0  0  0  0  0  0  0  0  0  0
   11.1956   -0.2522    0.0000 H   0  0  0  0  0  0  0  0  0  0  0  0
   10.4846   -2.4889    0.0000 H   0  0  0  0  0  0  0  0  0  0  0  0
   11.3602   -2.5363    0.0000 H   0  0  0  0  0  0  0  0  0  0  0  0
   11.4076   -1.6608    0.0000 H   0  0  0  0  0  0  0  0  0  0  0  0
    9.5714   -5.1931    0.0000 H   0  0  0  0  0  0  0  0  0  0  0  0
    6.5555   -6.8130    0.0000 H   0  0  0  0  0  0  0  0  0  0  0  0
    5.1526   -6.0030    0.0000 H   0  0  0  0  0  0  0  0  0  0  0  0
    5.1526   -4.3830    0.0000 H   0  0  0  0  0  0  0  0  0  0  0  0
  1 23  1  0  0  0  0
  2 23  1  0  0  0  0
  3 23  1  0  0  0  0
  4 24  2  0  0  0  0
  5 11  1  0  0  0  0
  5 12  1  0  0  0  0
  5 15  1  0  0  0  0
  6 13  1  0  0  0  0
  6 14  1  0  0  0  0
  6 17  1  0  0  0  0
  7 22  1  0  0  0  0
  7 24  1  0  0  0  0
  7 56  1  0  0  0  0
  8 10  1  0  0  0  0
  8 33  1  0  0  0  0
  8 34  1  0  0  0  0
  9 34  2  0  0  0  0
  9 36  1  0  0  0  0
 10 39  2  0  0  0  0
 11 14  1  0  0  0  0
 11 42  1  0  0  0  0
 11 43  1  0  0  0  0
 12 13  1  0  0  0  0
 12 40  1  0  0  0  0
 12 41  1  0  0  0  0
 13 44  1  0  0  0  0
 13 45  1  0  0  0  0
 14 46  1  0  0  0  0
 14 47  1  0  0  0  0
 15 16  1  0  0  0  0
 15 48  1  0  0  0  0
 15 49  1  0  0  0  0
 16 18  2  0  0  0  0
 16 19  1  0  0  0  0
 17 50  1  0  0  0  0
 17 51  1  0  0  0  0
 17 52  1  0  0  0  0
 18 20  1  0  0  0  0
 18 23  1  0  0  0  0
 19 21  2  0  0  0  0
 19 53  1  0  0  0  0
 20 22  2  0  0  0  0
 20 54  1  0  0  0  0
 21 22  1  0  0  0  0
 21 55  1  0  0  0  0
 24 25  1  0  0  0  0
 25 26  2  0  0  0  0
 25 27  1  0  0  0  0
 26 28  1  0  0  0  0
 26 57  1  0  0  0  0
 27 30  2  0  0  0  0
 27 58  1  0  0  0  0
 28 29  2  0  0  0  0
 28 32  1  0  0  0  0
 29 30  1  0  0  0  0
 29 31  1  0  0  0  0
 30 59  1  0  0  0  0
 31 60  1  0  0  0  0
 31 61  1  0  0  0  0
 31 62  1  0  0  0  0
 32 35  3  0  0  0  0
 33 35  1  0  0  0  0
 33 36  2  0  0  0  0
 34 37  1  0  0  0  0
 36 63  1  0  0  0  0
 37 38  2  0  0  0  0
 37 64  1  0  0  0  0
 38 39  1  0  0  0  0
 38 65  1  0  0  0  0
 39 66  1  0  0  0  0
M  END
> <PUBCHEM_COMPOUND_CID>
24826799

> <PUBCHEM_COMPOUND_CANONICALIZED>
1

> <PUBCHEM_CACTVS_COMPLEXITY>
910

> <PUBCHEM_CACTVS_HBOND_ACCEPTOR>
8

> <PUBCHEM_CACTVS_HBOND_DONOR>
1

> <PUBCHEM_CACTVS_ROTATABLE_BOND>
6

> <PUBCHEM_CACTVS_SUBSKEYS>
AAADceB7oYAAAAAAAAAAAAAAAAAAAWAAAAA8eIEAAAAAAFgB9AAAHwAYAAAADAjBnxQ/8J/IEADqEzd3dAiShC81kqAd2CE4dNiIaPLAnZGUoQhonALIyacYiMCOyAACQAAQAACQAASAACAAAAAAAAAAAA==

> <PUBCHEM_IUPAC_OPENEYE_NAME>
3-(2-imidazo[1,2-b]pyridazin-3-ylethynyl)-4-methyl-N-[4-[(4-methylpiperazin-1-yl)methyl]-3-(trifluoromethyl)phenyl]benzamide

> <PUBCHEM_IUPAC_CAS_NAME>
3-[2-(3-imidazo[1,2-b]pyridazinyl)ethynyl]-4-methyl-N-[4-[(4-methyl-1-piperazinyl)methyl]-3-(trifluoromethyl)phenyl]benzamide

> <PUBCHEM_IUPAC_NAME>
3-(2-imidazo[1,2-b]pyridazin-3-ylethynyl)-4-methyl-N-[4-[(4-methylpiperazin-1-yl)methyl]-3-(trifluoromethyl)phenyl]benzamide

> <PUBCHEM_IUPAC_SYSTEMATIC_NAME>
3-(2-imidazo[1,2-b]pyridazin-3-ylethynyl)-4-methyl-N-[4-[(4-methylpiperazin-1-yl)methyl]-3-(trifluoromethyl)phenyl]benzamide

> <PUBCHEM_IUPAC_TRADITIONAL_NAME>
3-(2-imidazo[1,2-b]pyridazin-3-ylethynyl)-4-methyl-N-[4-[(4-methylpiperazino)methyl]-3-(trifluoromethyl)phenyl]benzamide

> <PUBCHEM_IUPAC_INCHI>
InChI=1S/C29H27F3N6O/c1-20-5-6-22(16-21(20)8-10-25-18-33-27-4-3-11-34-38(25)27)28(39)35-24-9-7-23(26(17-24)29(30,31)32)19-37-14-12-36(2)13-15-37/h3-7,9,11,16-18H,12-15,19H2,1-2H3,(H,35,39)

> <PUBCHEM_IUPAC_INCHIKEY>
PHXJVRSECIGDHY-UHFFFAOYSA-N

> <PUBCHEM_XLOGP3_AA>
4.1

> <PUBCHEM_EXACT_MASS>
532.219844

> <PUBCHEM_MOLECULAR_FORMULA>
C29H27F3N6O

> <PUBCHEM_MOLECULAR_WEIGHT>
532.55949

> <PUBCHEM_OPENEYE_CAN_SMILES>
CC1=C(C=C(C=C1)C(=O)NC2=CC(=C(C=C2)CN3CCN(CC3)C)C(F)(F)F)C#CC4=CN=C5N4N=CC=C5

> <PUBCHEM_OPENEYE_ISO_SMILES>
CC1=C(C=C(C=C1)C(=O)NC2=CC(=C(C=C2)CN3CCN(CC3)C)C(F)(F)F)C#CC4=CN=C5N4N=CC=C5

> <PUBCHEM_CACTVS_TPSA>
65.8

> <PUBCHEM_MONOISOTOPIC_WEIGHT>
532.219844

> <PUBCHEM_TOTAL_CHARGE>
0

> <PUBCHEM_HEAVY_ATOM_COUNT>
39

> <PUBCHEM_ATOM_DEF_STEREO_COUNT>
0

> <PUBCHEM_ATOM_UDEF_STEREO_COUNT>
0

> <PUBCHEM_BOND_DEF_STEREO_COUNT>
0

> <PUBCHEM_BOND_UDEF_STEREO_COUNT>
0

> <PUBCHEM_ISOTOPIC_ATOM_COUNT>
0

> <PUBCHEM_COMPONENT_COUNT>
1

> <PUBCHEM_CACTVS_TAUTO_COUNT>
5

> <PUBCHEM_COORDINATE_TYPE>
1
5
255

> <PUBCHEM_BONDANNOTATIONS>
10  39  8
16  18  8
16  19  8
18  20  8
19  21  8
20  22  8
21  22  8
25  26  8
25  27  8
26  28  8
27  30  8
28  29  8
29  30  8
33  36  8
34  37  8
37  38  8
38  39  8
8  10  8
8  33  8
8  34  8
9  34  8
9  36  8

$$$$
