521106
  -OEChem-05191507062D

 38 41  0     0  0  0  0  0  0999 V2000
    5.5321    0.2500    0.0000 S   0  0  0  0  0  0  0  0  0  0  0  0
    4.6660   -0.2500    0.0000 S   0  0  0  0  0  0  0  0  0  0  0  0
    3.8000    1.2500    0.0000 O   0  0  0  0  0  0  0  0  0  0  0  0
    6.3981   -1.2500    0.0000 O   0  0  0  0  0  0  0  0  0  0  0  0
    3.8000   -1.7500    0.0000 C   0  0  0  0  0  0  0  0  0  0  0  0
    6.3981    1.7500    0.0000 C   0  0  0  0  0  0  0  0  0  0  0  0
    3.8000   -2.7500    0.0000 C   0  0  0  0  0  0  0  0  0  0  0  0
    6.3981    2.7500    0.0000 C   0  0  0  0  0  0  0  0  0  0  0  0
    5.5321    1.2500    0.0000 C   0  0  0  0  0  0  0  0  0  0  0  0
    4.6660   -1.2500    0.0000 C   0  0  0  0  0  0  0  0  0  0  0  0
    4.6660   -3.2500    0.0000 C   0  0  0  0  0  0  0  0  0  0  0  0
    5.5321    3.2500    0.0000 C   0  0  0  0  0  0  0  0  0  0  0  0
    5.5321   -1.7500    0.0000 C   0  0  0  0  0  0  0  0  0  0  0  0
    4.6660    1.7500    0.0000 C   0  0  0  0  0  0  0  0  0  0  0  0
    2.9061   -1.2153    0.0000 C   0  0  0  0  0  0  0  0  0  0  0  0
    7.2920    1.2153    0.0000 C   0  0  0  0  0  0  0  0  0  0  0  0
    7.2920    3.2847    0.0000 C   0  0  0  0  0  0  0  0  0  0  0  0
    2.9061   -3.2847    0.0000 C   0  0  0  0  0  0  0  0  0  0  0  0
    5.5321   -2.7500    0.0000 C   0  0  0  0  0  0  0  0  0  0  0  0
    4.6660    2.7500    0.0000 C   0  0  0  0  0  0  0  0  0  0  0  0
    8.1981    1.7292    0.0000 C   0  0  0  0  0  0  0  0  0  0  0  0
    2.0000   -1.7292    0.0000 C   0  0  0  0  0  0  0  0  0  0  0  0
    8.1981    2.7708    0.0000 C   0  0  0  0  0  0  0  0  0  0  0  0
    2.0000   -2.7708    0.0000 C   0  0  0  0  0  0  0  0  0  0  0  0
    4.6660   -3.8700    0.0000 H   0  0  0  0  0  0  0  0  0  0  0  0
    5.5321    3.8700    0.0000 H   0  0  0  0  0  0  0  0  0  0  0  0
    2.9132   -0.5954    0.0000 H   0  0  0  0  0  0  0  0  0  0  0  0
    7.2849    0.5954    0.0000 H   0  0  0  0  0  0  0  0  0  0  0  0
    2.9132   -3.9046    0.0000 H   0  0  0  0  0  0  0  0  0  0  0  0
    7.2849    3.9046    0.0000 H   0  0  0  0  0  0  0  0  0  0  0  0
    6.0690   -3.0600    0.0000 H   0  0  0  0  0  0  0  0  0  0  0  0
    4.1291    3.0600    0.0000 H   0  0  0  0  0  0  0  0  0  0  0  0
    1.4643   -1.4171    0.0000 H   0  0  0  0  0  0  0  0  0  0  0  0
    8.7338    1.4171    0.0000 H   0  0  0  0  0  0  0  0  0  0  0  0
    1.4643   -3.0829    0.0000 H   0  0  0  0  0  0  0  0  0  0  0  0
    8.7338    3.0829    0.0000 H   0  0  0  0  0  0  0  0  0  0  0  0
    6.9350   -1.5600    0.0000 H   0  0  0  0  0  0  0  0  0  0  0  0
    3.2631    1.5600    0.0000 H   0  0  0  0  0  0  0  0  0  0  0  0
  1  2  1  0  0  0  0
  1  9  1  0  0  0  0
  2 10  1  0  0  0  0
  3 14  1  0  0  0  0
  3 38  1  0  0  0  0
  4 13  1  0  0  0  0
  4 37  1  0  0  0  0
  5  7  1  0  0  0  0
  5 10  1  0  0  0  0
  5 15  2  0  0  0  0
  6  8  1  0  0  0  0
  6  9  1  0  0  0  0
  6 16  2  0  0  0  0
  7 11  1  0  0  0  0
  7 18  2  0  0  0  0
  8 12  1  0  0  0  0
  8 17  2  0  0  0  0
  9 14  2  0  0  0  0
 10 13  2  0  0  0  0
 11 19  2  0  0  0  0
 11 25  1  0  0  0  0
 12 20  2  0  0  0  0
 12 26  1  0  0  0  0
 13 19  1  0  0  0  0
 14 20  1  0  0  0  0
 15 22  1  0  0  0  0
 15 27  1  0  0  0  0
 16 21  1  0  0  0  0
 16 28  1  0  0  0  0
 17 23  1  0  0  0  0
 17 30  1  0  0  0  0
 18 24  1  0  0  0  0
 18 29  1  0  0  0  0
 19 31  1  0  0  0  0
 20 32  1  0  0  0  0
 21 23  2  0  0  0  0
 21 34  1  0  0  0  0
 22 24  2  0  0  0  0
 22 33  1  0  0  0  0
 23 36  1  0  0  0  0
 24 35  1  0  0  0  0
M  END
> <PUBCHEM_COMPOUND_CID>
521106

> <PUBCHEM_COMPOUND_CANONICALIZED>
1

> <PUBCHEM_CACTVS_COMPLEXITY>
380

> <PUBCHEM_CACTVS_HBOND_ACCEPTOR>
4

> <PUBCHEM_CACTVS_HBOND_DONOR>
2

> <PUBCHEM_CACTVS_ROTATABLE_BOND>
3

> <PUBCHEM_CACTVS_SUBSKEYS>
AAADccB4MABgAAAAAAAAAAAAAAAAAAAAAAAwYMGAAAAAAADBVAAAGgQACAAADASA2AAwB8AAAgCAAiBCAAAGAAAgIAAIiBIGCIgIJiKCERKAcAAkwBEImAeAwLAOoAABgAAUIABAAAMAAChAAAAAAAAAAA==

> <PUBCHEM_IUPAC_OPENEYE_NAME>
1-[(2-hydroxy-1-naphthyl)disulfanyl]naphthalen-2-ol

> <PUBCHEM_IUPAC_CAS_NAME>
1-[(2-hydroxy-1-naphthalenyl)disulfanyl]-2-naphthalenol

> <PUBCHEM_IUPAC_NAME>
1-[(2-hydroxynaphthalen-1-yl)disulfanyl]naphthalen-2-ol

> <PUBCHEM_IUPAC_SYSTEMATIC_NAME>
1-[(2-oxidanylnaphthalen-1-yl)disulfanyl]naphthalen-2-ol

> <PUBCHEM_IUPAC_TRADITIONAL_NAME>
1-[(2-hydroxy-1-naphthyl)disulfanyl]-2-naphthol

> <PUBCHEM_IUPAC_INCHI>
InChI=1S/C20H14O2S2/c21-17-11-9-13-5-1-3-7-15(13)19(17)23-24-20-16-8-4-2-6-14(16)10-12-18(20)22/h1-12,21-22H

> <PUBCHEM_IUPAC_INCHIKEY>
RFAXLXKIAKIUDT-UHFFFAOYSA-N

> <PUBCHEM_XLOGP3_AA>
5.8

> <PUBCHEM_EXACT_MASS>
350.043522

> <PUBCHEM_MOLECULAR_FORMULA>
C20H14O2S2

> <PUBCHEM_MOLECULAR_WEIGHT>
350.45396

> <PUBCHEM_OPENEYE_CAN_SMILES>
C1=CC=C2C(=C1)C=CC(=C2SSC3=C(C=CC4=CC=CC=C43)O)O

> <PUBCHEM_OPENEYE_ISO_SMILES>
C1=CC=C2C(=C1)C=CC(=C2SSC3=C(C=CC4=CC=CC=C43)O)O

> <PUBCHEM_CACTVS_TPSA>
91.1

> <PUBCHEM_MONOISOTOPIC_WEIGHT>
350.043522

> <PUBCHEM_TOTAL_CHARGE>
0

> <PUBCHEM_HEAVY_ATOM_COUNT>
24

> <PUBCHEM_ATOM_DEF_STEREO_COUNT>
0

> <PUBCHEM_ATOM_UDEF_STEREO_COUNT>
0

> <PUBCHEM_BOND_DEF_STEREO_COUNT>
0

> <PUBCHEM_BOND_UDEF_STEREO_COUNT>
0

> <PUBCHEM_ISOTOPIC_ATOM_COUNT>
0

> <PUBCHEM_COMPONENT_COUNT>
1

> <PUBCHEM_CACTVS_TAUTO_COUNT>
5

> <PUBCHEM_COORDINATE_TYPE>
1
5
255

> <PUBCHEM_BONDANNOTATIONS>
10  13  8
11  19  8
12  20  8
13  19  8
14  20  8
15  22  8
16  21  8
17  23  8
18  24  8
21  23  8
22  24  8
5  10  8
5  15  8
5  7  8
6  16  8
6  8  8
6  9  8
7  11  8
7  18  8
8  12  8
8  17  8
9  14  8

$$$$
